<?xml version="1.0" encoding="UTF-8"?>

<!-- generated on Tue Apr 30 20:58:45 2019 by Eclipse SUMO netgenerate Version UNKNOWN
<configuration xmlns:xsi="http://www.w3.org/2001/XMLSchema-instance" xsi:noNamespaceSchemaLocation="http://sumo.dlr.de/xsd/netgenerateConfiguration.xsd">

    <town-sim_network>
        <town-sim value="true"/>
        <town-sim.file value="output.txt"/>
    </town-sim_network>

    <output>
        <output-file value="NewSUMOFile.net.xml"/>
    </output>

</configuration>
-->

<net version="1.0" junctionCornerDetail="5" limitTurnSpeed="5.50" xmlns:xsi="http://www.w3.org/2001/XMLSchema-instance" xsi:noNamespaceSchemaLocation="http://sumo.dlr.de/xsd/net_file.xsd">

    <location netOffset="100.00,100.00" convBoundary="0.00,0.00,200.00,200.00" origBoundary="-100.00,-100.00,100.00,100.00" projParameter="!"/>

    <edge id=":-10_1_0" function="internal">
        <lane id=":-10_1_0_0" index="0" speed="3.65" length="4.67" shape="0.16,111.59 -1.11,110.92 -1.59,110.16 -1.27,109.32 -0.16,108.41"/>
    </edge>
    <edge id=":-1_-10_0" function="internal">
        <lane id=":-1_-10_0_0" index="0" speed="3.65" length="4.67" shape="88.41,0.16 89.08,-1.11 89.84,-1.59 90.68,-1.27 91.59,-0.16"/>
    </edge>
    <edge id=":0_0_0" function="internal">
        <lane id=":0_0_0_0" index="0" speed="12.08" length="22.34" shape="105.51,112.30 101.95,107.74 97.61,104.66 92.50,103.06 86.63,102.95"/>
    </edge>
    <edge id=":0_0_1" function="internal">
        <lane id=":0_0_1_0" index="0" speed="13.89" length="24.44" shape="105.51,112.30 102.84,108.85 99.38,104.55 96.18,98.81 94.28,91.05"/>
    </edge>
    <edge id=":0_0_2" function="internal">
        <lane id=":0_0_2_0" index="0" speed="8.31" length="11.57" shape="105.51,112.30 102.85,106.22 103.22,101.87 103.67,101.52"/>
    </edge>
    <edge id=":0_0_3" function="internal">
        <lane id=":0_0_3_0" index="0" speed="3.65" length="2.51" shape="105.51,112.30 105.58,110.86 106.06,110.10 106.24,110.09"/>
    </edge>
    <edge id=":0_0_16" function="internal">
        <lane id=":0_0_16_0" index="0" speed="8.31" length="10.16" shape="103.67,101.52 106.60,99.27 113.01,98.40"/>
    </edge>
    <edge id=":0_0_17" function="internal">
        <lane id=":0_0_17_0" index="0" speed="3.65" length="2.16" shape="106.24,110.09 106.95,110.04 108.26,110.65"/>
    </edge>
    <edge id=":0_0_4" function="internal">
        <lane id=":0_0_4_0" index="0" speed="5.91" length="10.27" shape="113.01,104.80 109.61,105.17 107.69,106.26 107.24,108.09 108.26,110.65"/>
    </edge>
    <edge id=":0_0_5" function="internal">
        <lane id=":0_0_5_0" index="0" speed="13.89" length="26.46" shape="113.01,104.80 105.37,104.44 97.93,103.69 91.44,103.03 86.63,102.95"/>
    </edge>
    <edge id=":0_0_6" function="internal">
        <lane id=":0_0_6_0" index="0" speed="10.01" length="21.08" shape="113.01,101.60 106.62,100.92 101.89,98.88 98.84,95.49 97.47,90.73"/>
    </edge>
    <edge id=":0_0_7" function="internal">
        <lane id=":0_0_7_0" index="0" speed="3.65" length="4.67" shape="113.01,101.60 111.81,100.80 111.41,100.00 111.81,99.20 113.01,98.40"/>
    </edge>
    <edge id=":0_0_8" function="internal">
        <lane id=":0_0_8_0" index="0" speed="6.74" length="9.02" shape="107.02,89.78 107.60,92.15 108.79,93.84 110.59,94.86 113.01,95.20"/>
    </edge>
    <edge id=":0_0_9" function="internal">
        <lane id=":0_0_9_0" index="0" speed="13.89" length="21.17" shape="103.83,90.10 104.60,97.12 105.47,102.69 106.63,107.10 108.26,110.65"/>
    </edge>
    <edge id=":0_0_10" function="internal">
        <lane id=":0_0_10_0" index="0" speed="9.69" length="8.98" shape="100.65,90.42 100.19,95.33 97.94,98.69"/>
    </edge>
    <edge id=":0_0_11" function="internal">
        <lane id=":0_0_11_0" index="0" speed="3.65" length="2.34" shape="100.65,90.42 99.97,91.69 99.22,92.17"/>
    </edge>
    <edge id=":0_0_18" function="internal">
        <lane id=":0_0_18_0" index="0" speed="9.69" length="12.31" shape="97.94,98.69 97.69,99.06 93.17,101.60 86.63,102.95"/>
    </edge>
    <edge id=":0_0_19" function="internal">
        <lane id=":0_0_19_0" index="0" speed="3.65" length="2.34" shape="99.22,92.17 98.38,91.85 97.47,90.73"/>
    </edge>
    <edge id=":0_0_12" function="internal">
        <lane id=":0_0_12_0" index="0" speed="7.09" length="10.92" shape="86.31,99.76 88.70,99.03 90.29,97.39 91.09,94.83 91.10,91.37"/>
    </edge>
    <edge id=":0_0_13" function="internal">
        <lane id=":0_0_13_0" index="0" speed="13.89" length="26.74" shape="86.31,99.76 91.17,99.34 97.77,98.89 105.32,98.54 113.01,98.40"/>
    </edge>
    <edge id=":0_0_14" function="internal">
        <lane id=":0_0_14_0" index="0" speed="13.00" length="25.97" shape="86.31,99.76 93.13,99.90 99.07,101.76 104.11,105.34 108.26,110.65"/>
    </edge>
    <edge id=":0_0_15" function="internal">
        <lane id=":0_0_15_0" index="0" speed="3.65" length="4.67" shape="86.31,99.76 87.58,100.44 88.06,101.19 87.74,102.03 86.63,102.95"/>
    </edge>
    <edge id=":10_0_0" function="internal">
        <lane id=":10_0_0_0" index="0" speed="3.65" length="4.67" shape="200.00,98.40 201.20,99.20 201.60,100.00 201.20,100.80 200.00,101.60"/>
    </edge>
    <edge id=":6_10_0" function="internal">
        <lane id=":6_10_0_0" index="0" speed="3.65" length="4.67" shape="161.37,199.18 161.30,200.62 160.82,201.37 159.93,201.44 158.63,200.82"/>
    </edge>

    <edge id="-10_10_0" from="-10_1" to="0_0" priority="-1">
        <lane id="-10_10_0_0" index="0" speed="13.89" length="86.90" shape="-0.16,108.41 86.31,99.76"/>
    </edge>
    <edge id="-1_-100_0" from="-1_-10" to="0_0" priority="-1">
        <lane id="-1_-100_0_0" index="0" speed="13.89" length="91.03" shape="97.96,-0.80 107.02,89.78"/>
        <lane id="-1_-100_0_1" index="1" speed="13.89" length="91.03" shape="94.78,-0.48 103.83,90.10"/>
        <lane id="-1_-100_0_2" index="2" speed="13.89" length="91.03" shape="91.59,-0.16 100.65,90.42"/>
    </edge>
    <edge id="0_0-10_1" from="0_0" to="-10_1" priority="-1">
        <lane id="0_0-10_1_0" index="0" speed="13.89" length="86.90" shape="86.63,102.95 0.16,111.59"/>
    </edge>
    <edge id="0_0-1_-10" from="0_0" to="-1_-10" priority="-1">
        <lane id="0_0-1_-10_0" index="0" speed="13.89" length="91.03" shape="91.10,91.37 82.04,0.80"/>
        <lane id="0_0-1_-10_1" index="1" speed="13.89" length="91.03" shape="94.28,91.05 85.22,0.48"/>
        <lane id="0_0-1_-10_2" index="2" speed="13.89" length="91.03" shape="97.47,90.73 88.41,0.16"/>
    </edge>
    <edge id="0_010_0" from="0_0" to="10_0" priority="-1">
        <lane id="0_010_0_0" index="0" speed="13.89" length="86.99" shape="113.01,95.20 200.00,95.20"/>
        <lane id="0_010_0_1" index="1" speed="13.89" length="86.99" shape="113.01,98.40 200.00,98.40"/>
    </edge>
    <edge id="0_06_10" from="0_0" to="6_10" priority="-1">
        <lane id="0_06_10_0" index="0" speed="13.89" length="103.24" shape="108.26,110.65 161.37,199.18"/>
    </edge>
    <edge id="10_00_0" from="10_0" to="0_0" priority="-1">
        <lane id="10_00_0_0" index="0" speed="13.89" length="86.99" shape="200.00,104.80 113.01,104.80"/>
        <lane id="10_00_0_1" index="1" speed="13.89" length="86.99" shape="200.00,101.60 113.01,101.60"/>
    </edge>
    <edge id="6_100_0" from="6_10" to="0_0" priority="-1">
        <lane id="6_100_0_0" index="0" speed="13.89" length="103.24" shape="158.63,200.82 105.51,112.30"/>
    </edge>

    <junction id="-10_1" type="priority" x="0.00" y="110.00" incLanes="0_0-10_1_0" intLanes=":-10_1_0_0" shape="-0.00,110.00 0.32,113.18 -0.00,110.00">
        <request index="0" response="0" foes="0" cont="0"/>
    </junction>
    <junction id="-1_-10" type="priority" x="90.00" y="0.00" incLanes="0_0-1_-10_0 0_0-1_-10_1 0_0-1_-10_2" intLanes=":-1_-10_0_0" shape="90.00,-0.00 80.45,0.96 90.00,-0.00">
        <request index="0" response="0" foes="0" cont="0"/>
    </junction>
    <junction id="0_0" type="priority" x="100.00" y="100.00" incLanes="6_100_0_0 10_00_0_0 10_00_0_1 -1_-100_0_0 -1_-100_0_1 -1_-100_0_2 -10_10_0_0" intLanes=":0_0_0_0 :0_0_1_0 :0_0_16_0 :0_0_17_0 :0_0_4_0 :0_0_5_0 :0_0_6_0 :0_0_7_0 :0_0_8_0 :0_0_9_0 :0_0_18_0 :0_0_19_0 :0_0_12_0 :0_0_13_0 :0_0_14_0 :0_0_15_0" shape="104.14,113.12 109.63,109.83 109.09,107.92 109.45,107.26 110.22,106.78 111.40,106.50 113.01,106.40 113.01,93.60 110.74,93.16 109.91,92.60 109.28,91.83 108.84,90.84 108.61,89.62 89.51,91.53 89.41,95.04 88.98,96.31 88.29,97.25 87.35,97.87 86.15,98.17 86.79,104.54 90.47,104.46 93.83,104.98 96.88,106.11 99.62,107.84 102.04,110.18">
        <request index="0"  response="0000000000000000" foes="1000010000100000" cont="0"/>
        <request index="1"  response="0000000000000000" foes="0111110001100000" cont="0"/>
        <request index="2"  response="0000001100000000" foes="0110001111100000" cont="1"/>
        <request index="3"  response="0100001000010000" foes="0100001000010000" cont="1"/>
        <request index="4"  response="0000001000000000" foes="0100001000001000" cont="0"/>
        <request index="5"  response="0000011000000111" foes="1100011000000111" cont="0"/>
        <request index="6"  response="0011011000000110" foes="0011111000000110" cont="0"/>
        <request index="7"  response="0010000100000100" foes="0010000100000100" cont="0"/>
        <request index="8"  response="0000000000000000" foes="0010000010000100" cont="0"/>
        <request index="9"  response="0000000000000000" foes="0110000001111100" cont="0"/>
        <request index="10" response="0000000000000011" foes="1110000001100011" cont="1"/>
        <request index="11" response="0001000001000010" foes="0001000001000010" cont="1"/>
        <request index="12" response="0000000000000010" foes="0000100001000010" cont="0"/>
        <request index="13" response="0000011100000110" foes="0000011111000110" cont="0"/>
        <request index="14" response="0000011000110110" foes="0000011000111110" cont="0"/>
        <request index="15" response="0000010000100001" foes="0000010000100001" cont="0"/>
    </junction>
    <junction id="10_0" type="priority" x="200.00" y="100.00" incLanes="0_010_0_0 0_010_0_1" intLanes=":10_0_0_0" shape="200.00,100.00 200.00,93.60 200.00,100.00">
        <request index="0" response="0" foes="0" cont="0"/>
    </junction>
    <junction id="6_10" type="priority" x="160.00" y="200.00" incLanes="0_06_10_0" intLanes=":6_10_0_0" shape="160.00,200.00 162.74,198.35 160.00,200.00">
        <request index="0" response="0" foes="0" cont="0"/>
    </junction>

    <junction id=":0_0_16_0" type="internal" x="103.67" y="101.52" incLanes=":0_0_2_0 -1_-100_0_0 -1_-100_0_1" intLanes=":0_0_5_0 :0_0_6_0 :0_0_7_0 :0_0_8_0 :0_0_9_0 :0_0_13_0 :0_0_14_0"/>
    <junction id=":0_0_17_0" type="internal" x="106.24" y="110.09" incLanes=":0_0_3_0 -10_10_0_0 -1_-100_0_1 10_00_0_0" intLanes=":0_0_4_0 :0_0_9_0 :0_0_14_0"/>
    <junction id=":0_0_18_0" type="internal" x="97.94" y="98.69" incLanes=":0_0_10_0 6_100_0_0" intLanes=":0_0_0_0 :0_0_1_0 :0_0_5_0 :0_0_6_0 :0_0_13_0 :0_0_14_0 :0_0_15_0"/>
    <junction id=":0_0_19_0" type="internal" x="99.22" y="92.17" incLanes=":0_0_11_0 -10_10_0_0 10_00_0_1 6_100_0_0" intLanes=":0_0_1_0 :0_0_6_0 :0_0_12_0"/>

    <connection from="-10_10_0" to="0_0-1_-10" fromLane="0" toLane="0" via=":0_0_12_0" dir="r" state="m"/>
    <connection from="-10_10_0" to="0_010_0" fromLane="0" toLane="1" via=":0_0_13_0" dir="s" state="m"/>
    <connection from="-10_10_0" to="0_06_10" fromLane="0" toLane="0" via=":0_0_14_0" dir="l" state="m"/>
    <connection from="-10_10_0" to="0_0-10_1" fromLane="0" toLane="0" via=":0_0_15_0" dir="t" state="m"/>
    <connection from="-1_-100_0" to="0_010_0" fromLane="0" toLane="0" via=":0_0_8_0" dir="r" state="M"/>
    <connection from="-1_-100_0" to="0_06_10" fromLane="1" toLane="0" via=":0_0_9_0" dir="s" state="M"/>
    <connection from="-1_-100_0" to="0_0-10_1" fromLane="2" toLane="0" via=":0_0_10_0" dir="l" state="m"/>
    <connection from="-1_-100_0" to="0_0-1_-10" fromLane="2" toLane="2" via=":0_0_11_0" dir="t" state="m"/>
    <connection from="0_0-10_1" to="-10_10_0" fromLane="0" toLane="0" via=":-10_1_0_0" dir="t" state="M"/>
    <connection from="0_0-1_-10" to="-1_-100_0" fromLane="2" toLane="2" via=":-1_-10_0_0" dir="t" state="M"/>
    <connection from="0_010_0" to="10_00_0" fromLane="1" toLane="1" via=":10_0_0_0" dir="t" state="M"/>
    <connection from="0_06_10" to="6_100_0" fromLane="0" toLane="0" via=":6_10_0_0" dir="t" state="M"/>
    <connection from="10_00_0" to="0_06_10" fromLane="0" toLane="0" via=":0_0_4_0" dir="r" state="m"/>
    <connection from="10_00_0" to="0_0-10_1" fromLane="0" toLane="0" via=":0_0_5_0" dir="s" state="m"/>
    <connection from="10_00_0" to="0_0-1_-10" fromLane="1" toLane="2" via=":0_0_6_0" dir="l" state="m"/>
    <connection from="10_00_0" to="0_010_0" fromLane="1" toLane="1" via=":0_0_7_0" dir="t" state="m"/>
    <connection from="6_100_0" to="0_0-10_1" fromLane="0" toLane="0" via=":0_0_0_0" dir="r" state="M"/>
    <connection from="6_100_0" to="0_0-1_-10" fromLane="0" toLane="1" via=":0_0_1_0" dir="s" state="M"/>
    <connection from="6_100_0" to="0_010_0" fromLane="0" toLane="1" via=":0_0_2_0" dir="l" state="m"/>
    <connection from="6_100_0" to="0_06_10" fromLane="0" toLane="0" via=":0_0_3_0" dir="t" state="m"/>

    <connection from=":-10_1_0" to="-10_10_0" fromLane="0" toLane="0" dir="t" state="M"/>
    <connection from=":-1_-10_0" to="-1_-100_0" fromLane="0" toLane="2" dir="t" state="M"/>
    <connection from=":0_0_0" to="0_0-10_1" fromLane="0" toLane="0" dir="r" state="M"/>
    <connection from=":0_0_1" to="0_0-1_-10" fromLane="0" toLane="1" dir="s" state="M"/>
    <connection from=":0_0_2" to="0_010_0" fromLane="0" toLane="1" via=":0_0_16_0" dir="l" state="m"/>
    <connection from=":0_0_16" to="0_010_0" fromLane="0" toLane="1" dir="l" state="M"/>
    <connection from=":0_0_3" to="0_06_10" fromLane="0" toLane="0" via=":0_0_17_0" dir="t" state="m"/>
    <connection from=":0_0_17" to="0_06_10" fromLane="0" toLane="0" dir="t" state="M"/>
    <connection from=":0_0_4" to="0_06_10" fromLane="0" toLane="0" dir="r" state="M"/>
    <connection from=":0_0_5" to="0_0-10_1" fromLane="0" toLane="0" dir="s" state="M"/>
    <connection from=":0_0_6" to="0_0-1_-10" fromLane="0" toLane="2" dir="l" state="M"/>
    <connection from=":0_0_7" to="0_010_0" fromLane="0" toLane="1" dir="t" state="M"/>
    <connection from=":0_0_8" to="0_010_0" fromLane="0" toLane="0" dir="r" state="M"/>
    <connection from=":0_0_9" to="0_06_10" fromLane="0" toLane="0" dir="s" state="M"/>
    <connection from=":0_0_10" to="0_0-10_1" fromLane="0" toLane="0" via=":0_0_18_0" dir="l" state="m"/>
    <connection from=":0_0_18" to="0_0-10_1" fromLane="0" toLane="0" dir="l" state="M"/>
    <connection from=":0_0_11" to="0_0-1_-10" fromLane="0" toLane="2" via=":0_0_19_0" dir="t" state="m"/>
    <connection from=":0_0_19" to="0_0-1_-10" fromLane="0" toLane="2" dir="t" state="M"/>
    <connection from=":0_0_12" to="0_0-1_-10" fromLane="0" toLane="0" dir="r" state="M"/>
    <connection from=":0_0_13" to="0_010_0" fromLane="0" toLane="1" dir="s" state="M"/>
    <connection from=":0_0_14" to="0_06_10" fromLane="0" toLane="0" dir="l" state="M"/>
    <connection from=":0_0_15" to="0_0-10_1" fromLane="0" toLane="0" dir="t" state="M"/>
    <connection from=":10_0_0" to="10_00_0" fromLane="0" toLane="1" dir="t" state="M"/>
    <connection from=":6_10_0" to="6_100_0" fromLane="0" toLane="0" dir="t" state="M"/>

</net>
