<?xml version="1.0" encoding="UTF-8"?>

<!-- generated on Thu Aug 22 09:21:24 2019 by Eclipse SUMO netgenerate Version UNKNOWN
<configuration xmlns:xsi="http://www.w3.org/2001/XMLSchema-instance" xsi:noNamespaceSchemaLocation="http://sumo.dlr.de/xsd/netgenerateConfiguration.xsd">

    <town-sim_network>
        <town-sim value="true"/>
        <town-sim.file value="output.json"/>
    </town-sim_network>

    <output>
        <output-file value="New.net.xml"/>
    </output>

    <processing>
        <turn-lanes value="2"/>
        <turn-lanes.length value="20"/>
        <lefthand value="false"/>
    </processing>

    <pedestrian>
        <sidewalks.guess value="true"/>
        <crossings.guess value="true"/>
    </pedestrian>

</configuration>
-->

<net version="1.0" junctionCornerDetail="5" walkingareas="true" limitTurnSpeed="5.50" xmlns:xsi="http://www.w3.org/2001/XMLSchema-instance" xsi:noNamespaceSchemaLocation="http://sumo.dlr.de/xsd/net_file.xsd">

    <location netOffset="61.78,87.61" convBoundary="0.00,0.00,161.78,192.20" origBoundary="-59.00,-86.00,100.00,103.00" projParameter="!"/>

    <edge id=":-50_-86_0" function="internal">
        <lane id=":-50_-86_0_0" index="0" disallow="pedestrian" speed="5.58" length="14.02" shape="7.63,4.02 7.89,-0.30 9.36,-2.54 12.04,-2.71 15.93,-0.80"/>
    </edge>
    <edge id=":-50_-86_w0" function="walkingarea">
        <lane id=":-50_-86_w0_0" index="0" allow="pedestrian" speed="1.00" length="14.80" width="2.00" shape="17.31,-1.61 19.04,-2.61 4.51,5.83 6.24,4.83"/>
    </edge>
    <edge id=":-50_-860_0.79.48_0" function="internal">
        <lane id=":-50_-860_0.79.48_0_0" index="0" disallow="pedestrian" speed="13.89" length="9.22" shape="53.86,64.45 57.88,71.36"/>
        <lane id=":-50_-860_0.79.48_0_1" index="1" disallow="pedestrian" speed="13.89" length="9.22" shape="53.86,64.45 54.67,66.83 54.49,68.71 54.31,70.59 55.12,72.97"/>
        <lane id=":-50_-860_0.79.48_0_2" index="2" disallow="pedestrian" speed="13.89" length="9.22" shape="53.86,64.45 54.35,67.28 53.11,69.51 51.86,71.75 52.35,74.58"/>
    </edge>
    <edge id=":-50_-860_0.79.48_w0" function="walkingarea">
        <lane id=":-50_-860_0.79.48_w0_0" index="0" allow="pedestrian" speed="1.00" length="8.00" width="2.00" shape="59.27,70.56 61.00,69.55 56.98,62.64 55.25,63.64"/>
    </edge>
    <edge id=":-59_103_0" function="internal">
        <lane id=":-59_103_0_0" index="0" disallow="pedestrian" speed="5.58" length="14.02" shape="6.94,192.99 3.07,194.93 0.39,194.77 -1.10,192.54 -1.39,188.22"/>
    </edge>
    <edge id=":-59_103_w0" function="walkingarea">
        <lane id=":-59_103_w0_0" index="0" allow="pedestrian" speed="1.00" length="21.20" width="2.00" shape="-5.55,185.84 -7.29,184.84 12.84,196.37 11.11,195.38"/>
    </edge>
    <edge id=":-59_1030_0.98.70_0" function="internal">
        <lane id=":-59_1030_0.98.70_0_0" index="0" disallow="pedestrian" speed="13.89" length="8.92" shape="42.91,104.46 46.88,97.52"/>
        <lane id=":-59_1030_0.98.70_0_1" index="1" disallow="pedestrian" speed="13.89" length="8.92" shape="45.68,106.05 49.66,99.11"/>
        <lane id=":-59_1030_0.98.70_0_2" index="2" disallow="pedestrian" speed="13.89" length="8.92" shape="45.68,106.05 47.34,104.16 49.06,103.37 50.78,102.58 52.44,100.70"/>
        <lane id=":-59_1030_0.98.70_0_3" index="3" disallow="pedestrian" speed="13.89" length="8.92" shape="45.68,106.05 47.89,104.21 50.45,104.17 53.01,104.12 55.21,102.29"/>
    </edge>
    <edge id=":-59_1030_0.98.70_w0" function="walkingarea">
        <lane id=":-59_1030_0.98.70_w0_0" index="0" allow="pedestrian" speed="1.00" length="8.00" width="2.00" shape="45.49,96.72 43.76,95.73 39.78,102.67 41.52,103.66"/>
    </edge>
    <edge id=":0_0_0" function="internal">
        <lane id=":0_0_0_0" index="0" disallow="pedestrian" speed="7.06" length="6.52" shape="71.83,92.41 70.15,92.60 68.70,93.19 67.47,94.16 66.46,95.52"/>
    </edge>
    <edge id=":0_0_1" function="internal">
        <lane id=":0_0_1_0" index="0" disallow="pedestrian" speed="8.57" length="9.89" shape="71.83,89.21 69.28,89.50 67.08,90.39 65.21,91.86 63.69,93.93"/>
    </edge>
    <edge id=":0_0_2" function="internal">
        <lane id=":0_0_2_0" index="0" disallow="pedestrian" speed="12.15" length="20.38" shape="71.83,86.01 64.43,85.72 58.75,84.84 54.80,83.38 52.58,81.34"/>
    </edge>
    <edge id=":0_0_3" function="internal">
        <lane id=":0_0_3_0" index="0" disallow="pedestrian" speed="3.65" length="4.67" shape="71.83,86.01 70.63,85.21 70.23,84.41 70.63,83.61 71.83,82.81"/>
    </edge>
    <edge id=":0_0_4" function="internal">
        <lane id=":0_0_4_0" index="0" disallow="pedestrian" speed="9.88" length="13.26" shape="60.88,76.51 62.94,79.27 65.45,81.23 68.41,82.41 71.83,82.81"/>
    </edge>
    <edge id=":0_0_5" function="internal">
        <lane id=":0_0_5_0" index="0" disallow="pedestrian" speed="11.85" length="19.42" shape="58.11,78.12 62.09,85.16 64.81,90.41 66.27,93.86 66.46,95.52"/>
    </edge>
    <edge id=":0_0_6" function="internal">
        <lane id=":0_0_6_0" index="0" disallow="pedestrian" speed="10.95" length="16.50" shape="55.35,79.73 56.93,82.19 59.89,86.83 62.66,91.47 63.69,93.93"/>
    </edge>
    <edge id=":0_0_7" function="internal">
        <lane id=":0_0_7_0" index="0" disallow="pedestrian" speed="3.65" length="4.67" shape="55.35,79.73 55.26,81.17 54.77,81.92 53.87,81.97 52.58,81.34"/>
    </edge>
    <edge id=":0_0_8" function="internal">
        <lane id=":0_0_8_0" index="0" disallow="pedestrian" speed="7.09" length="2.18" shape="52.58,87.57 53.25,86.00 53.32,85.53"/>
    </edge>
    <edge id=":0_0_9" function="internal">
        <lane id=":0_0_9_0" index="0" disallow="pedestrian" speed="10.97" length="16.63" shape="58.13,90.75 60.70,87.27 63.83,84.79 67.55,83.30 71.83,82.81"/>
    </edge>
    <edge id=":0_0_10" function="internal">
        <lane id=":0_0_10_0" index="0" disallow="pedestrian" speed="3.65" length="4.67" shape="60.91,92.34 62.20,91.70 63.09,91.75 63.59,92.49 63.69,93.93"/>
    </edge>
    <edge id=":0_0_11" function="internal">
        <lane id=":0_0_11_0" index="0" speed="7.09" length="4.36" shape="53.32,85.53 53.48,84.44 53.25,82.89 52.58,81.34"/>
    </edge>
    <edge id=":0_0_c0" function="crossing" crossingEdges="0_0100_0 100_00_0.80.00">
        <lane id=":0_0_c0_0" index="0" allow="pedestrian" speed="1.00" length="12.80" width="4.00" shape="69.83,81.21 69.83,94.01"/>
    </edge>
    <edge id=":0_0_c1" function="crossing" crossingEdges="0_0-50_-86 -50_-860_0.79.48">
        <lane id=":0_0_c1_0" index="0" allow="pedestrian" speed="1.00" length="12.80" width="4.00" shape="52.20,83.87 63.27,77.44"/>
    </edge>
    <edge id=":0_0_c2" function="crossing" crossingEdges="0_0-59_103 -59_1030_0.98.70">
        <lane id=":0_0_c2_0" index="0" allow="pedestrian" speed="1.00" length="19.20" width="4.00" shape="68.85,94.58 52.19,85.04"/>
    </edge>
    <edge id=":0_0_w0" function="walkingarea">
        <lane id=":0_0_w0_0" index="0" allow="pedestrian" speed="1.00" length="2.54" width="4.00" shape="67.85,96.32 69.59,97.31 71.83,96.01 71.83,94.01 70.98,94.07 70.21,94.26 69.51,94.59 68.88,95.03 68.33,95.61"/>
    </edge>
    <edge id=":0_0_w1" function="walkingarea">
        <lane id=":0_0_w1_0" index="0" allow="pedestrian" speed="1.00" length="6.68" width="4.00" shape="71.83,81.21 71.83,79.21 63.99,74.70 62.26,75.71 63.42,77.39 64.75,78.76 66.25,79.83 67.94,80.60 69.80,81.06"/>
    </edge>
    <edge id=":0_0_w2" function="walkingarea">
        <lane id=":0_0_w2_0" index="0" allow="pedestrian" speed="1.00" length="2.56" width="4.00" shape="51.20,82.14 49.47,83.15 49.46,85.78 51.19,86.77 51.56,86.00 51.79,85.22 51.86,84.45 51.79,83.68 51.57,82.91"/>
    </edge>
    <edge id=":100_0_0" function="internal">
        <lane id=":100_0_0_0" index="0" disallow="pedestrian" speed="5.58" length="14.02" shape="161.78,82.81 165.38,85.21 166.58,87.61 165.38,90.01 161.78,92.41"/>
    </edge>
    <edge id=":100_0_w0" function="walkingarea">
        <lane id=":100_0_w0_0" index="0" allow="pedestrian" speed="1.00" length="14.80" width="2.00" shape="161.78,94.01 161.78,96.01 161.78,79.21 161.78,81.21"/>
    </edge>
    <edge id=":100_00_0.80.00_0" function="internal">
        <lane id=":100_00_0.80.00_0_0" index="0" disallow="pedestrian" speed="13.89" length="9.22" shape="85.78,92.41 77.78,92.41"/>
        <lane id=":100_00_0.80.00_0_1" index="1" disallow="pedestrian" speed="13.89" length="9.22" shape="85.78,92.41 83.32,91.91 81.78,90.81 80.24,89.71 77.78,89.21"/>
        <lane id=":100_00_0.80.00_0_2" index="2" disallow="pedestrian" speed="13.89" length="9.22" shape="85.78,92.41 83.09,91.41 81.78,89.21 80.47,87.01 77.78,86.01"/>
    </edge>
    <edge id=":100_00_0.80.00_w0" function="walkingarea">
        <lane id=":100_00_0.80.00_w0_0" index="0" allow="pedestrian" speed="1.00" length="8.00" width="2.00" shape="77.78,94.01 77.78,96.01 85.78,96.01 85.78,94.01"/>
    </edge>

    <edge id="-50_-860_0" from="-50_-86" to="-50_-860_0.79.48" priority="-1" shape="14.54,0.00 54.49,68.71">
        <lane id="-50_-860_0_0" index="0" allow="pedestrian" speed="13.89" length="75.48" width="2.00" shape="18.17,-2.11 56.11,63.14"/>
        <lane id="-50_-860_0_1" index="1" disallow="pedestrian" speed="13.89" length="75.48" shape="15.93,-0.80 53.86,64.45"/>
    </edge>
    <edge id="-50_-860_0.79.48" from="-50_-860_0.79.48" to="0_0" priority="-1" shape="48.96,71.93 59.01,89.22">
        <lane id="-50_-860_0.79.48_0" index="0" allow="pedestrian" speed="13.89" length="5.96" width="2.00" shape="60.13,70.06 63.13,75.21"/>
        <lane id="-50_-860_0.79.48_1" index="1" disallow="pedestrian" speed="13.89" length="5.96" shape="57.88,71.36 60.88,76.51"/>
        <lane id="-50_-860_0.79.48_2" index="2" disallow="pedestrian" speed="13.89" length="5.96" shape="55.12,72.97 58.11,78.12"/>
        <lane id="-50_-860_0.79.48_3" index="3" disallow="pedestrian" speed="13.89" length="5.96" shape="52.35,74.58 55.35,79.73"/>
    </edge>
    <edge id="-59_1030_0" from="-59_103" to="-59_1030_0.98.70" priority="-1" shape="0.00,189.02 49.06,103.37">
        <lane id="-59_1030_0_0" index="0" allow="pedestrian" speed="13.89" length="94.70" width="2.00" shape="-6.42,185.34 40.65,103.17"/>
        <lane id="-59_1030_0_1" index="1" disallow="pedestrian" speed="13.89" length="94.70" shape="-4.17,186.63 42.91,104.46"/>
        <lane id="-59_1030_0_2" index="2" disallow="pedestrian" speed="13.89" length="94.70" shape="-1.39,188.22 45.68,106.05"/>
    </edge>
    <edge id="-59_1030_0.98.70" from="-59_1030_0.98.70" to="0_0" priority="-1" shape="54.61,106.55 64.55,89.20">
        <lane id="-59_1030_0.98.70_0" index="0" allow="pedestrian" speed="13.89" length="11.46" width="2.00" shape="44.63,96.22 50.32,86.28"/>
        <lane id="-59_1030_0.98.70_1" index="1" disallow="pedestrian" speed="13.89" length="11.46" shape="46.88,97.52 52.58,87.57"/>
        <lane id="-59_1030_0.98.70_2" index="2" disallow="pedestrian" speed="13.89" length="11.46" shape="49.66,99.11 55.36,89.16"/>
        <lane id="-59_1030_0.98.70_3" index="3" disallow="pedestrian" speed="13.89" length="11.46" shape="52.44,100.70 58.13,90.75"/>
        <lane id="-59_1030_0.98.70_4" index="4" disallow="pedestrian" speed="13.89" length="11.46" shape="55.21,102.29 60.91,92.34"/>
    </edge>
    <edge id="0_0-50_-86" from="0_0" to="-50_-86" priority="-1" shape="59.01,89.22 9.01,3.22">
        <lane id="0_0-50_-86_0" index="0" allow="pedestrian" speed="13.89" length="89.44" width="2.00" shape="50.33,82.65 5.38,5.33"/>
        <lane id="0_0-50_-86_1" index="1" disallow="pedestrian" speed="13.89" length="89.44" shape="52.58,81.34 7.63,4.02"/>
    </edge>
    <edge id="0_0-59_103" from="0_0" to="-59_103" priority="-1" shape="64.55,89.20 5.55,192.20">
        <lane id="0_0-59_103_0" index="0" allow="pedestrian" speed="13.89" length="114.17" width="2.00" shape="68.72,96.81 11.97,195.88"/>
        <lane id="0_0-59_103_1" index="1" disallow="pedestrian" speed="13.89" length="114.17" shape="66.46,95.52 9.72,194.58"/>
        <lane id="0_0-59_103_2" index="2" disallow="pedestrian" speed="13.89" length="114.17" shape="63.69,93.93 6.94,192.99"/>
    </edge>
    <edge id="0_0100_0" from="0_0" to="100_0" priority="-1" shape="61.78,84.41 161.78,84.41">
        <lane id="0_0100_0_0" index="0" allow="pedestrian" speed="13.89" length="89.94" width="2.00" shape="71.83,80.21 161.78,80.21"/>
        <lane id="0_0100_0_1" index="1" disallow="pedestrian" speed="13.89" length="89.94" shape="71.83,82.81 161.78,82.81"/>
    </edge>
    <edge id="100_00_0" from="100_0" to="100_00_0.80.00" priority="-1" shape="161.78,90.81 81.78,90.81">
        <lane id="100_00_0_0" index="0" allow="pedestrian" speed="13.89" length="76.00" width="2.00" shape="161.78,95.01 85.78,95.01"/>
        <lane id="100_00_0_1" index="1" disallow="pedestrian" speed="13.89" length="76.00" shape="161.78,92.41 85.78,92.41"/>
    </edge>
    <edge id="100_00_0.80.00" from="100_00_0.80.00" to="0_0" priority="-1" shape="81.78,84.41 61.78,84.41">
        <lane id="100_00_0.80.00_0" index="0" allow="pedestrian" speed="13.89" length="5.94" width="2.00" shape="77.78,95.01 71.83,95.01"/>
        <lane id="100_00_0.80.00_1" index="1" disallow="pedestrian" speed="13.89" length="5.94" shape="77.78,92.41 71.83,92.41"/>
        <lane id="100_00_0.80.00_2" index="2" disallow="pedestrian" speed="13.89" length="5.94" shape="77.78,89.21 71.83,89.21"/>
        <lane id="100_00_0.80.00_3" index="3" disallow="pedestrian" speed="13.89" length="5.94" shape="77.78,86.01 71.83,86.01"/>
    </edge>

    <junction id="-50_-86" type="priority" x="11.78" y="1.61" incLanes="0_0-50_-86_0 0_0-50_-86_1" intLanes=":-50_-86_0_0" shape="14.54,0.00 4.51,5.83 9.01,3.22">
        <request index="0" response="0" foes="0" cont="0"/>
    </junction>
    <junction id="-50_-860_0.79.48" type="priority" x="51.72" y="70.32" incLanes="-50_-860_0_0 -50_-860_0_1" intLanes=":-50_-860_0.79.48_0_0 :-50_-860_0.79.48_0_1 :-50_-860_0.79.48_0_2" shape="50.97,75.38 61.00,69.55 56.98,62.64 52.48,65.25 53.08,67.23 52.66,68.86 50.79,71.77 50.37,73.40">
        <request index="0" response="000" foes="000" cont="0"/>
        <request index="1" response="000" foes="000" cont="0"/>
        <request index="2" response="000" foes="000" cont="0"/>
    </junction>
    <junction id="-59_103" type="priority" x="2.78" y="190.61" incLanes="0_0-59_103_0 0_0-59_103_1 0_0-59_103_2" intLanes=":-59_103_0_0" shape="0.00,189.02 12.84,196.37 5.55,192.20">
        <request index="0" response="0" foes="0" cont="0"/>
    </junction>
    <junction id="-59_1030_0.98.70" type="priority" x="51.84" y="104.96" incLanes="-59_1030_0_0 -59_1030_0_1 -59_1030_0_2" intLanes=":-59_1030_0.98.70_0_0 :-59_1030_0.98.70_0_1 :-59_1030_0.98.70_0_2 :-59_1030_0.98.70_0_3" shape="56.60,103.08 43.76,95.73 39.78,102.67 47.07,106.84 48.48,105.33 50.11,104.88 53.56,105.05 55.19,104.60">
        <request index="0" response="0000" foes="0000" cont="0"/>
        <request index="1" response="0000" foes="0000" cont="0"/>
        <request index="2" response="0000" foes="0000" cont="0"/>
        <request index="3" response="0000" foes="0000" cont="0"/>
    </junction>
    <junction id="0_0" type="allway_stop" x="61.78" y="87.61" incLanes="100_00_0.80.00_0 100_00_0.80.00_1 100_00_0.80.00_2 100_00_0.80.00_3 -50_-860_0.79.48_0 -50_-860_0.79.48_1 -50_-860_0.79.48_2 -50_-860_0.79.48_3 -59_1030_0.98.70_0 -59_1030_0.98.70_1 -59_1030_0.98.70_2 -59_1030_0.98.70_3 -59_1030_0.98.70_4 :0_0_w1_0 :0_0_w2_0 :0_0_w0_0" intLanes=":0_0_0_0 :0_0_1_0 :0_0_2_0 :0_0_3_0 :0_0_4_0 :0_0_5_0 :0_0_6_0 :0_0_7_0 :0_0_11_0 :0_0_9_0 :0_0_10_0 :0_0_c0_0 :0_0_c1_0 :0_0_c2_0" shape="71.83,96.01 71.83,79.21 68.64,78.71 67.26,78.08 66.03,77.21 64.94,76.08 63.99,74.70 49.47,83.15 49.80,84.02 49.84,84.45 49.80,84.89 49.67,85.33 49.46,85.78 69.59,97.31 70.17,96.59 70.52,96.33 70.92,96.15 71.35,96.04">
        <request index="0"  response="10010001100000" foes="10110001100000" cont="0"/>
        <request index="1"  response="10010001100000" foes="10110001100000" cont="0"/>
        <request index="2"  response="01001111100000" foes="01101111100000" cont="0"/>
        <request index="3"  response="00001000010000" foes="00101000010000" cont="0"/>
        <request index="4"  response="00101000001000" foes="01101000001000" cont="0"/>
        <request index="5"  response="10011000000111" foes="11011000000111" cont="0"/>
        <request index="6"  response="10011000000111" foes="11011000000111" cont="0"/>
        <request index="7"  response="00000100000100" foes="01000100000100" cont="0"/>
        <request index="8"  response="01000010000100" foes="11000010000100" cont="1"/>
        <request index="9"  response="00100001111100" foes="10100001111100" cont="0"/>
        <request index="10" response="00000001100011" foes="10000001100011" cont="0"/>
        <request index="11" response="00000000001111" foes="00001000011111" cont="0"/>
        <request index="12" response="00000011110000" foes="00000111110100" cont="0"/>
        <request index="13" response="00011100000000" foes="00011101100011" cont="0"/>
    </junction>
    <junction id="100_0" type="priority" x="161.78" y="87.61" incLanes="0_0100_0_0 0_0100_0_1" intLanes=":100_0_0_0" shape="161.78,90.81 161.78,79.21 161.78,84.41">
        <request index="0" response="0" foes="0" cont="0"/>
    </junction>
    <junction id="100_00_0.80.00" type="priority" x="81.78" y="87.61" incLanes="100_00_0_0 100_00_0_1" intLanes=":100_00_0.80.00_0_0 :100_00_0.80.00_0_1 :100_00_0.80.00_0_2" shape="85.78,96.01 85.78,90.81 83.76,90.33 82.56,89.15 80.99,86.07 79.79,84.88 77.78,84.41 77.78,96.01">
        <request index="0" response="000" foes="000" cont="0"/>
        <request index="1" response="000" foes="000" cont="0"/>
        <request index="2" response="000" foes="000" cont="0"/>
    </junction>

    <junction id=":0_0_11_0" type="internal" x="53.32" y="85.53" incLanes=":0_0_8_0" intLanes=":0_0_2_0 :0_0_7_0 :0_0_c1_0 :0_0_c2_0"/>

    <connection from="-50_-860_0" to="-50_-860_0.79.48" fromLane="1" toLane="1" via=":-50_-860_0.79.48_0_0" dir="s" state="M"/>
    <connection from="-50_-860_0" to="-50_-860_0.79.48" fromLane="1" toLane="2" via=":-50_-860_0.79.48_0_1" dir="s" state="M"/>
    <connection from="-50_-860_0" to="-50_-860_0.79.48" fromLane="1" toLane="3" via=":-50_-860_0.79.48_0_2" dir="s" state="M"/>
    <connection from="-50_-860_0.79.48" to="0_0100_0" fromLane="1" toLane="1" via=":0_0_4_0" dir="r" state="w"/>
    <connection from="-50_-860_0.79.48" to="0_0-59_103" fromLane="2" toLane="1" via=":0_0_5_0" dir="l" state="w"/>
    <connection from="-50_-860_0.79.48" to="0_0-59_103" fromLane="3" toLane="2" via=":0_0_6_0" dir="l" state="w"/>
    <connection from="-50_-860_0.79.48" to="0_0-50_-86" fromLane="3" toLane="1" via=":0_0_7_0" dir="t" state="w"/>
    <connection from="-59_1030_0" to="-59_1030_0.98.70" fromLane="1" toLane="1" via=":-59_1030_0.98.70_0_0" dir="s" state="M"/>
    <connection from="-59_1030_0" to="-59_1030_0.98.70" fromLane="2" toLane="2" via=":-59_1030_0.98.70_0_1" dir="s" state="M"/>
    <connection from="-59_1030_0" to="-59_1030_0.98.70" fromLane="2" toLane="3" via=":-59_1030_0.98.70_0_2" dir="s" state="M"/>
    <connection from="-59_1030_0" to="-59_1030_0.98.70" fromLane="2" toLane="4" via=":-59_1030_0.98.70_0_3" dir="s" state="M"/>
    <connection from="-59_1030_0.98.70" to="0_0-50_-86" fromLane="1" toLane="1" via=":0_0_8_0" dir="r" state="w"/>
    <connection from="-59_1030_0.98.70" to="0_0100_0" fromLane="3" toLane="1" via=":0_0_9_0" dir="l" state="w"/>
    <connection from="-59_1030_0.98.70" to="0_0-59_103" fromLane="4" toLane="2" via=":0_0_10_0" dir="t" state="w"/>
    <connection from="0_0-50_-86" to="-50_-860_0" fromLane="1" toLane="1" via=":-50_-86_0_0" dir="t" state="M"/>
    <connection from="0_0-59_103" to="-59_1030_0" fromLane="2" toLane="2" via=":-59_103_0_0" dir="t" state="M"/>
    <connection from="0_0100_0" to="100_00_0" fromLane="1" toLane="1" via=":100_0_0_0" dir="t" state="M"/>
    <connection from="100_00_0" to="100_00_0.80.00" fromLane="1" toLane="1" via=":100_00_0.80.00_0_0" dir="s" state="M"/>
    <connection from="100_00_0" to="100_00_0.80.00" fromLane="1" toLane="2" via=":100_00_0.80.00_0_1" dir="s" state="M"/>
    <connection from="100_00_0" to="100_00_0.80.00" fromLane="1" toLane="3" via=":100_00_0.80.00_0_2" dir="s" state="M"/>
    <connection from="100_00_0.80.00" to="0_0-59_103" fromLane="1" toLane="1" via=":0_0_0_0" dir="r" state="w"/>
    <connection from="100_00_0.80.00" to="0_0-59_103" fromLane="2" toLane="2" via=":0_0_1_0" dir="r" state="w"/>
    <connection from="100_00_0.80.00" to="0_0-50_-86" fromLane="3" toLane="1" via=":0_0_2_0" dir="l" state="w"/>
    <connection from="100_00_0.80.00" to="0_0100_0" fromLane="3" toLane="1" via=":0_0_3_0" dir="t" state="w"/>

    <connection from=":-50_-86_0" to="-50_-860_0" fromLane="0" toLane="1" dir="t" state="M"/>
    <connection from=":-50_-860_0.79.48_0" to="-50_-860_0.79.48" fromLane="0" toLane="1" dir="s" state="M"/>
    <connection from=":-50_-860_0.79.48_0" to="-50_-860_0.79.48" fromLane="1" toLane="2" dir="s" state="M"/>
    <connection from=":-50_-860_0.79.48_0" to="-50_-860_0.79.48" fromLane="2" toLane="3" dir="s" state="M"/>
    <connection from=":-59_103_0" to="-59_1030_0" fromLane="0" toLane="2" dir="t" state="M"/>
    <connection from=":-59_1030_0.98.70_0" to="-59_1030_0.98.70" fromLane="0" toLane="1" dir="s" state="M"/>
    <connection from=":-59_1030_0.98.70_0" to="-59_1030_0.98.70" fromLane="1" toLane="2" dir="s" state="M"/>
    <connection from=":-59_1030_0.98.70_0" to="-59_1030_0.98.70" fromLane="2" toLane="3" dir="s" state="M"/>
    <connection from=":-59_1030_0.98.70_0" to="-59_1030_0.98.70" fromLane="3" toLane="4" dir="s" state="M"/>
    <connection from=":0_0_0" to="0_0-59_103" fromLane="0" toLane="1" dir="r" state="M"/>
    <connection from=":0_0_1" to="0_0-59_103" fromLane="0" toLane="2" dir="r" state="M"/>
    <connection from=":0_0_2" to="0_0-50_-86" fromLane="0" toLane="1" dir="l" state="M"/>
    <connection from=":0_0_3" to="0_0100_0" fromLane="0" toLane="1" dir="t" state="M"/>
    <connection from=":0_0_4" to="0_0100_0" fromLane="0" toLane="1" dir="r" state="M"/>
    <connection from=":0_0_5" to="0_0-59_103" fromLane="0" toLane="1" dir="l" state="M"/>
    <connection from=":0_0_6" to="0_0-59_103" fromLane="0" toLane="2" dir="l" state="M"/>
    <connection from=":0_0_7" to="0_0-50_-86" fromLane="0" toLane="1" dir="t" state="M"/>
    <connection from=":0_0_8" to="0_0-50_-86" fromLane="0" toLane="1" via=":0_0_11_0" dir="r" state="m"/>
    <connection from=":0_0_11" to="0_0-50_-86" fromLane="0" toLane="1" dir="r" state="M"/>
    <connection from=":0_0_9" to="0_0100_0" fromLane="0" toLane="1" dir="l" state="M"/>
    <connection from=":0_0_10" to="0_0-59_103" fromLane="0" toLane="2" dir="t" state="M"/>
    <connection from=":100_0_0" to="100_00_0" fromLane="0" toLane="1" dir="t" state="M"/>
    <connection from=":100_00_0.80.00_0" to="100_00_0.80.00" fromLane="0" toLane="1" dir="s" state="M"/>
    <connection from=":100_00_0.80.00_0" to="100_00_0.80.00" fromLane="1" toLane="2" dir="s" state="M"/>
    <connection from=":100_00_0.80.00_0" to="100_00_0.80.00" fromLane="2" toLane="3" dir="s" state="M"/>

    <connection from=":-50_-86_w0" to="-50_-860_0" fromLane="0" toLane="0" dir="s" state="M"/>
    <connection from="0_0-50_-86" to=":-50_-86_w0" fromLane="0" toLane="0" dir="s" state="M"/>
    <connection from=":-50_-860_0.79.48_w0" to="-50_-860_0.79.48" fromLane="0" toLane="0" dir="s" state="M"/>
    <connection from="-50_-860_0" to=":-50_-860_0.79.48_w0" fromLane="0" toLane="0" dir="s" state="M"/>
    <connection from=":-59_103_w0" to="-59_1030_0" fromLane="0" toLane="0" dir="s" state="M"/>
    <connection from="0_0-59_103" to=":-59_103_w0" fromLane="0" toLane="0" dir="s" state="M"/>
    <connection from=":-59_1030_0.98.70_w0" to="-59_1030_0.98.70" fromLane="0" toLane="0" dir="s" state="M"/>
    <connection from="-59_1030_0" to=":-59_1030_0.98.70_w0" fromLane="0" toLane="0" dir="s" state="M"/>
    <connection from=":0_0_c0" to=":0_0_w0" fromLane="0" toLane="0" dir="s" state="M"/>
    <connection from=":0_0_c1" to=":0_0_w1" fromLane="0" toLane="0" dir="s" state="M"/>
    <connection from=":0_0_c2" to=":0_0_w2" fromLane="0" toLane="0" dir="s" state="M"/>
    <connection from=":0_0_w0" to=":0_0_c2" fromLane="0" toLane="0" dir="s" state="m"/>
    <connection from=":0_0_w0" to="0_0-59_103" fromLane="0" toLane="0" dir="s" state="M"/>
    <connection from="100_00_0.80.00" to=":0_0_w0" fromLane="0" toLane="0" dir="s" state="M"/>
    <connection from=":0_0_w1" to=":0_0_c0" fromLane="0" toLane="0" dir="s" state="m"/>
    <connection from=":0_0_w1" to="0_0100_0" fromLane="0" toLane="0" dir="s" state="M"/>
    <connection from="-50_-860_0.79.48" to=":0_0_w1" fromLane="0" toLane="0" dir="s" state="M"/>
    <connection from=":0_0_w2" to=":0_0_c1" fromLane="0" toLane="0" dir="s" state="m"/>
    <connection from=":0_0_w2" to="0_0-50_-86" fromLane="0" toLane="0" dir="s" state="M"/>
    <connection from="-59_1030_0.98.70" to=":0_0_w2" fromLane="0" toLane="0" dir="s" state="M"/>
    <connection from=":100_0_w0" to="100_00_0" fromLane="0" toLane="0" dir="s" state="M"/>
    <connection from="0_0100_0" to=":100_0_w0" fromLane="0" toLane="0" dir="s" state="M"/>
    <connection from=":100_00_0.80.00_w0" to="100_00_0.80.00" fromLane="0" toLane="0" dir="s" state="M"/>
    <connection from="100_00_0" to=":100_00_0.80.00_w0" fromLane="0" toLane="0" dir="s" state="M"/>
</net>
